* RC ladder with ramp current source
* I(t): ramps from 0 A to 1 A in 50 ps, then stays at 1 A

I1 n1 0 PWL(0 0 50p 1 10n 1)

Rsh n1 0 1
C1  n1 0 0.1n

R1  n1 n2 1
C2  n2 0 0.1n

R2  n2 n3 1
C3  n3 0 0.1n

R3  n3 out 1
C4  out 0 0.1n

.tran 1p 5n
.end